<?xml version="1.0" encoding="UTF-8"?>

<!-- generated on 2022-05-25 15:40:03 by Eclipse SUMO polyconvert Version 1.13.0
<configuration xmlns:xsi="http://www.w3.org/2001/XMLSchema-instance" xsi:noNamespaceSchemaLocation="http://sumo.dlr.de/xsd/polyconvertConfiguration.xsd">

    <input>
        <net-file value="osm.net.xml"/>
        <osm-files value="osm_bbox.osm.xml.gz"/>
        <osm.keep-full-type value="true"/>
        <type-file value="/usr/share/sumo/data/typemap/osmPolyconvert.typ.xml"/>
    </input>

    <output>
        <output-file value="osm.poly.xml"/>
    </output>

    <processing>
        <poi-layer-offset value="5"/>
    </processing>

    <report>
        <verbose value="true"/>
    </report>

</configuration>
-->

<additional xmlns:xsi="http://www.w3.org/2001/XMLSchema-instance" xsi:noNamespaceSchemaLocation="http://sumo.dlr.de/xsd/additional_file.xsd">
    <location netOffset="-645085.30,-5069395.72" convBoundary="-1222.11,-84.98,4068.99,1502.24" origBoundary="4.850303,45.761403,4.918142,45.776103" projParameter="+proj=utm +zone=31 +ellps=WGS84 +datum=WGS84 +units=m +no_defs"/>

    <poly id="1017546282" type="amenity.school" color="237,199,199" fill="1" layer="-2.00" shape="829.150449,978.151716 830.275391,985.570410 888.486873,979.956480 890.638740,1000.616492 891.902792,1012.707279 914.967747,1010.403359 916.031669,988.295962 917.769763,956.366550 919.760564,915.005408 886.161224,913.371302 883.729731,913.225262 884.176860,903.131125 846.668911,901.638873 845.909339,916.427831 845.619169,920.834154 845.272541,926.650910 844.483135,946.686020 830.732596,946.218640 829.150449,978.151716"/>
    <poly id="1017553632" type="building.yes" color="255,230,230" fill="1" layer="-1.00" shape="1064.245279,881.284444 1081.408304,881.210083 1081.371880,873.828049 1064.208574,873.913521 1064.245279,881.284444"/>
    <poly id="1017601930" type="amenity.parking" color="184,184,179" fill="1" layer="-1.00" shape="789.871711,875.805325 790.434481,857.132191 818.777587,857.341767 822.098853,857.364159 828.586511,866.987486 828.158035,874.303008 816.138877,873.642878 815.700468,876.411638 789.871711,875.805325"/>
    <poly id="1017601932" type="amenity.parking" color="184,184,179" fill="1" layer="-1.00" shape="771.269588,868.254347 770.853596,864.765212 771.873858,854.439970 773.967608,851.409921 816.511992,841.181193 817.592831,847.498341 787.447195,854.149628 786.800056,868.463228 771.269588,868.254347"/>
    <poly id="1017601951" type="leisure.garden" color="207,245,201" fill="1" layer="-2.00" shape="1018.574636,932.490210 1008.580590,934.044976 1006.484421,885.217705 1015.465685,860.895328 1013.240650,823.837111 1016.430879,794.687555 1016.994463,780.972268 1039.086902,775.733455 1048.638930,773.468011 1050.433696,873.811925 1049.593730,932.030094 1030.006295,932.325440 1018.574636,932.490210"/>
    <poly id="1017611155" type="landuse.residential" color="235,235,227" fill="1" layer="-3.00" shape="848.867180,886.539096 853.109749,886.749883 872.263767,887.688811 875.433900,887.852194 878.775344,888.008486 882.108753,888.175707 888.057449,888.282079 895.311516,888.785955 899.561597,889.008066 919.032557,890.032397 921.059045,888.212481 922.273465,855.726077 922.748844,844.432052 918.043174,845.388659 886.598329,852.698154 885.707532,852.866207 882.879118,853.388935 882.254501,853.485426 858.997116,857.997101 849.281657,860.937078 848.558574,860.920099 848.391708,865.707267 847.457283,884.960836 848.867180,886.539096"/>
    <poly id="1028761821" type="amenity.parking_space" color="237,199,199" fill="1" layer="-1.00" shape="1943.063877,544.735502 1942.299966,541.838311 1936.624613,543.315925 1937.388264,546.224225 1943.063877,544.735502"/>
    <poly id="1028761822" type="amenity.shelter" color="237,199,199" fill="1" layer="-1.00" shape="1559.095558,634.176812 1562.421593,633.343754 1562.755317,634.696697 1559.429545,635.518644 1559.095558,634.176812"/>
    <poly id="1028761822#1" type="building.yes" color="255,230,230" fill="1" layer="-1.00" shape="1559.095558,634.176812 1562.421593,633.343754 1562.755317,634.696697 1559.429545,635.518644 1559.095558,634.176812"/>
    <poly id="1028761823" type="amenity.parking_space" color="237,199,199" fill="1" layer="-1.00" shape="1551.671327,651.754322 1550.924638,648.779779 1540.985968,651.257672 1541.732924,654.221103 1551.671327,651.754322"/>
    <poly id="1030857653" type="building.yes" color="255,230,230" fill="1" layer="-1.00" shape="1125.891078,1134.139244 1126.355107,1129.625852 1127.387842,1129.705732 1128.358118,1129.795259 1127.861943,1134.352359 1125.891078,1134.139244"/>
    <poly id="1030857654" type="building.yes" color="255,230,230" fill="1" layer="-1.00" shape="1141.237089,1130.920898 1140.788076,1135.456875 1138.777292,1135.287281 1139.219313,1130.717791 1140.158490,1130.806588 1141.237089,1130.920898"/>
    <poly id="1030857655" type="building.yes" color="255,230,230" fill="1" layer="-1.00" shape="1142.185299,1121.038640 1141.962298,1122.912037 1141.256102,1122.839839 1141.007571,1122.822874 1141.176148,1120.948197 1142.185299,1121.038640"/>
    <poly id="1030857656" type="building.yes" color="255,230,230" fill="1" layer="-1.00" shape="1142.890380,1113.885256 1143.164872,1111.146004 1141.245025,1111.078596 1140.981184,1113.695821 1142.890380,1113.885256"/>
    <poly id="1030857657" type="building.yes" color="255,230,230" fill="1" layer="-1.00" shape="1127.583542,1125.686258 1127.662933,1123.965109 1119.457490,1123.571961 1119.370327,1125.292927 1127.583542,1125.686258"/>
    <poly id="1030857658" type="building.yes" color="255,230,230" fill="1" layer="-1.00" shape="1124.187491,1110.332644 1131.615997,1110.685284 1131.522294,1112.684002 1124.086278,1112.320069 1124.187491,1110.332644"/>
    <poly id="1030857659" type="building.yes" color="255,230,230" fill="1" layer="-1.00" shape="1113.510958,1109.825784 1120.784230,1110.163644 1120.704056,1111.918123 1113.430787,1111.580264 1113.510958,1109.825784"/>
    <poly id="1030857660" type="building.yes" color="255,230,230" fill="1" layer="-1.00" shape="1113.430787,1111.580264 1112.894157,1122.817271 1112.797062,1124.960421 1119.370327,1125.292927 1119.457490,1123.571961 1127.662933,1123.965109 1127.583542,1125.686258 1127.387842,1129.705732 1128.358118,1129.795259 1127.861943,1134.352359 1125.891078,1134.139244 1125.215877,1141.015426 1140.134091,1142.422485 1140.788076,1135.456875 1138.777292,1135.287281 1139.219313,1130.717791 1140.158490,1130.806588 1140.362893,1126.086996 1141.116783,1126.115851 1141.256102,1122.839839 1141.007571,1122.822874 1141.176148,1120.948197 1142.185299,1121.038640 1142.890380,1113.885256 1140.981184,1113.695821 1141.245025,1111.078596 1131.615997,1110.685284 1131.522294,1112.684002 1124.086278,1112.320069 1124.187491,1110.332644 1120.784230,1110.163644 1120.704056,1111.918123 1113.430787,1111.580264"/>
    <poly id="1030857661" type="building.yes" color="255,230,230" fill="1" layer="-1.00" shape="1109.280983,1122.643339 1112.894157,1122.817271 1113.430787,1111.580264 1113.510958,1109.825784 1109.685506,1109.746904 1109.586649,1111.634339 1109.434848,1121.724311 1109.280983,1122.643339"/>
    <poly id="1030857662" type="building.yes" color="255,230,230" fill="1" layer="-1.00" shape="1109.434848,1121.724311 1103.281417,1121.401692 1103.115201,1124.499212 1108.951170,1124.758781 1109.280983,1122.643339 1109.434848,1121.724311"/>
    <poly id="1030857663" type="building.yes" color="255,230,230" fill="1" layer="-1.00" shape="1093.468424,1120.892948 1096.723437,1121.080678 1096.612431,1124.146148 1103.115201,1124.499212 1103.281417,1121.401692 1109.434848,1121.724311 1109.586649,1111.634339 1094.520506,1110.890851 1093.468424,1120.892948"/>
    <poly id="1030857664" type="building.yes" color="255,230,230" fill="1" layer="-1.00" shape="1094.686978,1109.105053 1109.685506,1109.746904 1109.586649,1111.634339 1094.520506,1110.890851 1094.527562,1110.590879 1094.686978,1109.105053"/>
    <poly id="1061791964" type="building.residential" color="255,230,230" fill="1" layer="-1.00" shape="773.130227,557.589054 780.759471,558.034885 790.772698,558.336585 789.900904,564.985844 795.888215,565.448739 795.760275,570.236819 807.162892,571.004689 809.526718,552.496118 776.973097,546.663084 773.965843,548.171011 773.130227,557.589054"/>
    <poly id="1061791965" type="building.construction" color="255,230,230" fill="1" layer="-1.00" shape="763.755547,550.299162 760.814192,585.468489 746.077551,584.222293 749.313247,549.104333 763.755547,550.299162"/>
    <poly id="1061791966" type="amenity.parking_space" color="237,199,199" fill="1" layer="-1.00" shape="826.719387,548.875640 826.145500,552.775071 816.333788,551.510935 817.046372,547.336854 826.719387,548.875640"/>
    <poly id="1061801174" type="building.residential" color="255,230,230" fill="1" layer="-1.00" shape="804.654723,535.340623 816.595284,537.388381 819.216767,522.487510 807.057063,521.157158 804.654723,535.340623"/>
    <poly id="1061801175" type="building.residential" color="255,230,230" fill="1" layer="-1.00" shape="816.595284,537.388381 840.274534,541.134625 842.617804,530.795990 834.501499,525.247429 819.216767,522.487510 816.595284,537.388381"/>
    <poly id="1061801176" type="building.residential" color="255,230,230" fill="1" layer="-1.00" shape="866.700389,547.846786 840.274534,541.134625 842.855963,529.267545 867.261545,535.876693 866.700389,547.846786"/>
    <poly id="1061801177" type="building.residential" color="255,230,230" fill="1" layer="-1.00" shape="866.422086,564.336701 866.855680,562.768382 876.695601,565.811855 876.184041,567.055973 866.422086,564.336701"/>
    <poly id="1062012195" type="landuse.greenfield" color="242,242,204" fill="1" layer="-3.00" shape="698.187597,784.135224 694.215004,784.019808 690.358778,783.918241 686.954442,805.014745 694.628123,806.206312 698.187597,784.135224"/>
    <poly id="1062104204" type="landuse.construction" color="194,194,130" fill="1" layer="-3.00" shape="929.795582,1005.738317 1016.052362,1001.062497 1014.471845,973.323703 1012.002126,971.164675 1006.484421,885.217705 995.986148,885.715716 996.106810,863.041457 979.739939,863.001373 979.496611,843.564499 965.192559,842.805917 965.184413,826.931764 935.299785,827.096608 932.749103,889.965589 926.650059,953.540457 925.279020,980.109358 929.795582,1005.738317"/>
    <poly id="1062104205" type="landuse.construction" color="194,194,130" fill="1" layer="-3.00" shape="921.461336,1039.958321 902.959036,1040.768660 902.453683,1026.516912 921.061125,1024.875323 921.461336,1039.958321"/>
    <poly id="1062107923" type="building.residential" color="255,230,230" fill="1" layer="-1.00" shape="987.050580,861.761437 999.429620,861.674453 999.129305,823.483168 986.318640,823.726754 987.050580,861.761437"/>
    <poly id="1062110595" type="amenity.parking" color="184,184,179" fill="1" layer="-1.00" shape="1059.432067,802.123760 1081.975588,801.520059 1096.026221,801.150205 1096.177591,819.851264 1082.914578,820.473081 1082.699940,805.783494 1059.784994,806.634131 1059.432067,802.123760"/>
    <poly id="1062117058" type="amenity.dressing_room" color="237,199,199" fill="1" layer="-1.00" shape="1560.257687,837.153912 1568.424467,836.234993 1560.402540,760.788569 1557.940063,760.963909 1557.241191,790.583387 1555.344480,790.849890 1560.257687,837.153912"/>
    <poly id="1062117058#1" type="building.yes" color="255,230,230" fill="1" layer="-1.00" shape="1560.257687,837.153912 1568.424467,836.234993 1560.402540,760.788569 1557.940063,760.963909 1557.241191,790.583387 1555.344480,790.849890 1560.257687,837.153912"/>
    <poly id="1062125876" type="building.residential" color="255,230,230" fill="1" layer="-1.00" shape="1391.254283,1163.021146 1392.264371,1157.131104 1395.102326,1157.520371 1396.314267,1149.667509 1397.748633,1142.609145 1405.486450,1144.358939 1408.914162,1145.140067 1410.167646,1145.425290 1409.072459,1151.624579 1416.238158,1152.894017 1416.922046,1150.942561 1422.101521,1152.320808 1427.535285,1153.471613 1425.444892,1164.927662 1419.692814,1164.080609 1420.232031,1161.336488 1415.754563,1160.208234 1415.232111,1162.241309 1401.361896,1160.269128 1400.145877,1164.664735 1391.254283,1163.021146"/>
    <poly id="1062125877" type="building.residential" color="255,230,230" fill="1" layer="-1.00" shape="1398.580532,1137.348531 1406.450526,1139.101441 1410.064311,1139.909188 1413.206191,1140.605766 1414.674104,1132.125315 1430.566792,1135.423577 1432.720280,1124.591528 1422.094158,1122.606863 1421.338018,1124.323173 1415.599178,1123.242997 1417.281481,1115.567971 1403.111251,1112.788347 1398.580532,1137.348531"/>
    <poly id="1062125878" type="building.residential" color="255,230,230" fill="1" layer="-1.00" shape="1410.064311,1139.909188 1408.914162,1145.140067 1405.486450,1144.358939 1406.450526,1139.101441 1410.064311,1139.909188"/>
    <poly id="108156079" type="building.apartments" color="255,230,230" fill="1" layer="-1.00" shape="1890.859608,414.507399 1918.775743,413.789145 1920.435884,449.189328 1909.999046,449.353798 1908.846357,427.694239 1891.396947,428.304302 1890.859608,414.507399"/>
    <poly id="108156080" type="amenity.public_building" color="237,199,199" fill="1" layer="-1.00" shape="1484.929667,690.998938 1482.948641,682.303771 1492.535249,679.906415 1492.128738,678.340552 1507.285458,674.629471 1508.329465,678.522554 1512.299596,677.426757 1511.860241,675.604443 1513.909694,675.130319 1513.396254,673.150630 1520.368368,671.436438 1520.701050,672.833818 1523.040552,672.266493 1521.399717,685.100420 1518.571687,686.589988 1515.876712,687.715860 1513.244203,688.832089 1510.012033,689.645153 1506.355367,690.314811 1502.911079,690.555946 1500.753124,690.682910 1497.858879,691.681810 1495.504098,692.237668 1492.574817,692.413141 1489.734732,692.435091 1487.170536,691.974434 1485.111997,691.514586 1484.929667,690.998938"/>
    <poly id="108156080#1" type="building.yes" color="255,230,230" fill="1" layer="-1.00" shape="1484.929667,690.998938 1482.948641,682.303771 1492.535249,679.906415 1492.128738,678.340552 1507.285458,674.629471 1508.329465,678.522554 1512.299596,677.426757 1511.860241,675.604443 1513.909694,675.130319 1513.396254,673.150630 1520.368368,671.436438 1520.701050,672.833818 1523.040552,672.266493 1521.399717,685.100420 1518.571687,686.589988 1515.876712,687.715860 1513.244203,688.832089 1510.012033,689.645153 1506.355367,690.314811 1502.911079,690.555946 1500.753124,690.682910 1497.858879,691.681810 1495.504098,692.237668 1492.574817,692.413141 1489.734732,692.435091 1487.170536,691.974434 1485.111997,691.514586 1484.929667,690.998938"/>
    <poly id="120236746" type="leisure.park" color="207,245,201" fill="1" layer="-2.00" shape="524.066453,1114.895095 571.731917,1116.078837 572.513063,1088.062107 595.809162,1088.819393 589.028916,1064.793981 587.213800,1041.674215 576.172362,1040.137041 570.852839,1037.422286 566.794101,1032.691706 566.346160,1019.608566 531.614522,1018.516741 527.795757,1018.482842 501.693901,1018.271483 495.973145,1023.384305 493.262178,1071.698439 522.921668,1073.449351 521.211661,1108.914391 524.066453,1114.895095"/>
    <poly id="120260525" type="leisure.park" color="207,245,201" fill="1" layer="-2.00" shape="756.444438,772.018066 756.930126,753.309780 789.651997,754.911435 788.332201,775.345389 756.444438,772.018066"/>
    <poly id="128764678" type="leisure.park" color="207,245,201" fill="1" layer="-2.00" shape="1245.315841,593.577150 1245.362357,586.975199 1239.001147,586.202929 1237.212873,555.424434 1244.667129,556.033458 1246.343383,541.010421 1247.888449,539.490524 1272.388744,541.401343 1270.500263,559.487460 1294.806801,561.693947 1293.935145,572.278313 1291.953464,598.943972 1245.315841,593.577150"/>
    <poly id="128920611" type="leisure.park" color="207,245,201" fill="1" layer="-2.00" shape="1005.192567,1166.516810 1049.122672,1170.728963 1056.216364,1028.852563 1019.867009,1025.096534 1005.192567,1166.516810"/>
    <poly id="128922237" type="leisure.park" color="207,245,201" fill="1" layer="-2.00" shape="1236.210560,708.371390 1232.142917,667.679123 1295.053196,686.335064 1294.515020,694.981943 1236.210560,708.371390"/>
    <poly id="128925235" type="leisure.garden" color="207,245,201" fill="1" layer="-2.00" shape="871.921780,783.332893 911.410019,780.036230 911.551570,782.952003 873.812865,790.591726 871.921780,783.332893"/>
    <poly id="128931497" type="leisure.park" color="207,245,201" fill="1" layer="-2.00" shape="1153.385212,696.962086 1133.184795,697.487275 1133.208624,673.988124 1153.457841,677.343644 1153.425056,687.002879 1153.385212,696.962086"/>
    <poly id="129219373" type="amenity.parking" color="184,184,179" fill="1" layer="-1.00" shape="767.221740,958.856469 766.358143,933.669110 766.484863,928.269608 817.714561,927.804693 817.991345,938.215963 815.093646,941.360518 814.540808,951.985752 813.321339,959.527262 767.221740,958.856469"/>
    <poly id="129326001" type="amenity.school" color="237,199,199" fill="1" layer="-2.00" shape="617.773440,855.060535 681.272538,840.297680 686.954442,805.014745 690.661224,781.968884 677.211689,781.920220 676.941996,783.136676 669.877228,782.848709 612.007235,780.469106 607.751151,784.482322 606.741372,800.677172 625.803099,801.913301 617.773440,855.060535"/>
    <poly id="129366248" type="amenity.parking" color="184,184,179" fill="1" layer="-1.00" shape="1014.549674,381.253373 1017.655524,388.796473 1017.482918,390.181942 1020.842433,395.207626 1025.178197,399.411427 1030.299736,402.622127 1035.984953,404.689997 1041.979343,405.520124 1048.011284,405.083890 1053.823923,403.386374 1059.142762,400.521166 1063.747212,396.605356 1067.423151,391.811768 1070.002064,386.358763 1071.384892,380.488565 1071.495643,374.455062 1070.335558,368.536188 1067.960831,362.988938 1064.466795,358.060111 1060.019293,353.975934 1054.808797,350.907630 1049.065188,349.005116 1043.051274,348.341269 1037.030912,348.944525 1027.742445,352.216670 1025.430612,354.252175 1022.865518,356.470704 1020.573561,358.984675 1018.602702,361.739636 1016.969015,364.713730 1015.704645,367.863249 1014.818675,371.132824 1014.327437,374.489490 1014.240014,377.877881 1014.549674,381.253373"/>
    <poly id="129537254" type="building.residential" color="255,230,230" fill="1" layer="-1.00" shape="1106.703433,819.509693 1107.165650,866.664504 1096.442440,866.801337 1096.241692,850.200082 1096.177591,819.851264 1096.026221,801.150205 1081.975588,801.520059 1059.432067,802.123760 1065.879852,796.228156 1065.807401,788.722999 1064.827206,788.722181 1063.899274,787.822178 1063.905732,786.555080 1059.299689,786.580162 1059.166758,775.360764 1063.541924,769.605395 1073.751531,767.166477 1105.905458,759.507742 1110.517536,763.195656 1110.686134,814.234238 1106.639136,814.305784 1105.253592,814.339890 1105.287573,819.509736 1106.703433,819.509693"/>
    <poly id="129839551" type="leisure.park" color="207,245,201" fill="1" layer="-2.00" shape="1739.177744,244.667607 1783.311110,242.853324 1822.244609,241.483389 1829.528157,248.014041 1835.374800,393.675464 1836.670874,430.345368 1785.912700,432.714113 1766.039758,433.823074 1766.306810,439.643197 1766.406141,447.293543 1766.441731,451.385174 1733.973762,451.807605 1732.333369,451.757742 1724.060335,431.130620 1722.524983,346.588448 1781.954265,345.391146 1780.891756,304.747166 1741.544747,305.196039 1741.062470,293.334700 1739.177744,244.667607"/>
    <poly id="130629324" type="leisure.park" color="207,245,201" fill="1" layer="-2.00" shape="1747.306366,784.176939 1745.463350,767.681299 1741.269595,730.164818 1744.590035,726.274749 1779.213397,723.468904 1784.057836,782.822066 1774.920338,790.576516 1747.306366,784.176939"/>
    <poly id="130629331" type="building.yes" color="255,230,230" fill="1" layer="-1.00" shape="1621.085128,660.840300 1619.869302,659.944533 1608.735744,662.616439 1607.054047,650.804618 1624.375445,646.689141 1625.523407,646.505029 1631.900370,650.890860 1632.480899,656.618327 1633.391986,663.832062 1633.853383,667.355696 1623.623189,668.670483 1622.584872,668.823834 1622.373130,666.917954 1621.876819,666.850657 1621.085128,660.840300"/>
    <poly id="132082185" type="amenity.fountain" color="237,199,199" fill="1" layer="-1.00" shape="1058.578480,386.468114 1039.127500,385.188215 1040.383843,366.164554 1059.842658,367.444638 1058.578480,386.468114"/>
    <poly id="132082187" type="amenity.fountain" color="237,199,199" fill="1" layer="-1.00" shape="1079.695479,388.031807 1099.064312,389.165390 1100.202698,369.872170 1080.826029,368.738401 1079.695479,388.031807"/>
    <poly id="132761492" type="building.yes" color="255,230,230" fill="1" layer="-1.00" shape="544.081138,486.788297 546.968762,432.609002 560.601317,434.506924 559.057353,487.116973 544.081138,486.788297"/>
    <poly id="132761493" type="building.yes" color="255,230,230" fill="1" layer="-1.00" shape="637.466172,506.862943 633.140917,502.203902 634.640279,477.738979 650.406226,480.554183 650.264988,482.596250 649.465148,482.533031 647.609941,508.568109 637.466172,506.862943"/>
    <poly id="133201544" type="leisure.garden" color="207,245,201" fill="1" layer="-2.00" shape="1110.385889,900.744811 1084.062093,902.004269 1083.593978,872.624178 1110.031779,872.145530 1110.385889,900.744811"/>
    <poly id="140362085" type="building.yes" color="255,230,230" fill="1" layer="-1.00" shape="1332.565198,437.714554 1345.564397,438.420966 1346.353885,423.732775 1349.850307,423.926309 1351.087026,400.822542 1349.469425,400.795550 1338.618251,400.384292 1338.073692,400.382580 1337.542407,410.385798 1334.038725,410.169868 1332.565198,437.714554"/>
    <poly id="146669950" type="leisure.park" color="207,245,201" fill="1" layer="-2.00" shape="721.637898,1036.667397 728.166434,1036.920621 732.241460,1042.941175 731.297521,1056.647539 714.276979,1055.314428 716.063477,1041.172066 721.637898,1036.667397"/>
    <poly id="148569945" type="amenity.parking" color="184,184,179" fill="1" layer="-1.00" shape="1968.673954,509.602477 1966.671576,459.742985 1944.417701,460.205882 1941.219558,460.230278 1940.517125,460.324825 1940.260740,470.834773 1940.755261,482.818718 1932.845280,483.054036 1931.677365,483.093109 1931.842839,497.148016 1942.594147,496.513024 1942.894740,503.868005 1943.170646,510.622121 1945.894455,510.586507 1968.673954,509.602477"/>
    <poly id="159826766" type="building.yes" color="255,230,230" fill="1" layer="-1.00" shape="1543.237741,667.929609 1541.181365,679.908893 1540.705844,682.587811 1521.190660,686.707347 1521.399717,685.100420 1523.040552,672.266493 1523.246116,671.137483 1534.111847,668.603619 1539.959343,667.074128 1541.078118,667.467358 1543.237741,667.929609"/>
    <poly id="159830145" type="building.garages" color="255,230,230" fill="1" layer="-1.00" shape="1491.711951,486.864294 1492.096663,481.437517 1500.113983,481.926728 1499.524131,487.804433 1491.711951,486.864294"/>
    <poly id="159830153" type="landuse.construction" color="194,194,130" fill="1" layer="-3.00" shape="1481.205031,483.737415 1482.056397,465.449019 1443.337289,461.423570 1442.807046,481.275812 1481.205031,483.737415"/>
    <poly id="160126527" type="landuse.construction" color="194,194,130" fill="1" layer="-3.00" shape="1334.110765,366.818224 1360.844564,368.070534 1362.578707,339.375903 1336.039103,338.461653 1334.110765,366.818224"/>
    <poly id="170807836" type="landuse.allotments" color="194,194,130" fill="1" layer="-3.00" shape="1761.529379,1082.373893 1800.367858,1082.169025 1829.886484,1036.900928 1838.005307,1025.498572 1842.632010,1017.026178 1837.230606,881.235231 1812.056600,905.251616 1790.146749,920.852392 1782.458866,925.539640 1738.228015,947.160626 1761.529379,1082.373893"/>
    <poly id="184476356" type="amenity.school" color="237,199,199" fill="1" layer="-2.00" shape="1281.341481,636.622675 1296.221989,655.537248 1290.594211,659.962364 1275.711081,641.158905 1281.341481,636.622675"/>
    <poly id="184476356#1" type="building.school" color="255,230,230" fill="1" layer="-1.00" shape="1281.341481,636.622675 1296.221989,655.537248 1290.594211,659.962364 1275.711081,641.158905 1281.341481,636.622675"/>
    <poly id="206015786" type="leisure.garden" color="207,245,201" fill="1" layer="-2.00" shape="1802.463959,868.085453 1842.851818,827.409641 1843.675131,818.580538 1794.749728,808.708898 1802.463959,868.085453"/>
    <poly id="206015787" type="amenity.parking" color="184,184,179" fill="1" layer="-1.00" shape="1909.838106,547.940374 1920.172767,545.839259 1923.866173,540.990981 1923.244359,525.835884 1908.101555,526.956212 1908.763257,546.347557 1909.838106,547.940374"/>
    <poly id="214135135" type="landuse.grass" color="194,194,130" fill="1" layer="-3.00" shape="952.646678,1144.616666 953.715124,1143.507920 954.973356,1138.957604 957.257248,1130.485133 959.803774,1124.408823 961.116609,1121.838480 952.228841,1122.674535 951.523114,1143.767661 952.646678,1144.616666"/>
    <poly id="214135136" type="landuse.grass" color="194,194,130" fill="1" layer="-3.00" shape="961.535454,1099.382433 952.448935,1104.371286 953.327979,1106.026028 958.967651,1110.004778 964.248923,1112.352142 964.246231,1108.494748 963.613057,1104.322399 962.439388,1100.971065 961.535454,1099.382433"/>
    <poly id="214135140" type="landuse.grass" color="194,194,130" fill="1" layer="-3.00" shape="952.719949,1101.776458 979.772195,1087.027391 984.948282,1044.207072 984.241850,1042.489685 982.619694,1041.339935 954.353467,1044.844199 952.719949,1101.776458"/>
    <poly id="214135141" type="landuse.grass" color="194,194,130" fill="1" layer="-3.00" shape="955.485413,1143.649569 965.931375,1143.372604 966.625663,1136.007748 974.892525,1130.477190 979.503781,1089.511117 963.135147,1098.508498 964.585053,1102.021952 965.739137,1106.206544 965.947511,1110.580118 965.746316,1115.499877 964.034493,1121.807010 960.559953,1127.650300 958.124885,1133.618067 955.485413,1143.649569"/>
    <poly id="218159595" type="building.yes" color="255,230,230" fill="1" layer="-1.00" shape="1868.322354,766.194144 1883.390017,765.594435 1883.351616,764.915433 1882.541851,748.166262 1881.447642,748.051457 1881.232212,743.344171 1879.972237,716.023878 1878.679962,716.060018 1866.704487,716.499414 1866.867172,732.321743 1867.414526,743.061907 1870.233899,742.928477 1870.319215,743.597472 1875.244106,743.580528 1875.525315,748.467230 1869.162426,748.761428 1869.220002,750.274606 1869.462865,755.138168 1867.981891,755.258778 1868.322354,766.194144"/>
    <poly id="234586751" type="building.yes" color="255,230,230" fill="1" layer="-1.00" shape="1449.104434,559.338092 1461.960357,559.841289 1463.311757,542.120493 1450.235284,541.400887 1449.104434,559.338092"/>
    <poly id="234586752" type="building.yes" color="255,230,230" fill="1" layer="-1.00" shape="1461.960357,559.841289 1449.104434,559.338092 1447.795441,576.581891 1460.921290,577.513868 1461.960357,559.841289"/>
    <poly id="234586753" type="building.yes" color="255,230,230" fill="1" layer="-1.00" shape="1464.087427,524.730727 1463.311757,542.120493 1450.235284,541.400887 1451.166428,524.014786 1464.087427,524.730727"/>
    <poly id="234587620" type="building.yes" color="255,230,230" fill="1" layer="-1.00" shape="1451.166428,524.014786 1464.087427,524.730727 1465.345028,509.008646 1460.636980,508.730897 1454.390423,508.372413 1452.012941,508.238547 1451.166428,524.014786"/>
    <poly id="265905837" type="amenity.parking" color="184,184,179" fill="1" layer="-1.00" shape="996.537473,1165.068325 988.464576,1164.333860 988.832214,1160.607450 989.355065,1155.572972 991.634936,1133.705362 993.905737,1111.893121 996.991474,1082.218633 999.292415,1060.118080 1000.777911,1045.901997 1004.256688,1042.860116 1008.761241,1045.489394 996.537473,1165.068325"/>
    <poly id="267033395" type="tourism.artwork" color="207,245,201" fill="0" layer="-2.00" shape="1101.718125,606.783435 1102.225260,599.114051"/>
    <poly id="272522221" type="amenity.parking" color="184,184,179" fill="1" layer="-1.00" shape="794.960522,1017.267361 795.775659,997.455178 813.036692,998.160527 812.221500,1017.972709 794.960522,1017.267361"/>
    <poly id="273932926" type="amenity.school" color="237,199,199" fill="1" layer="-2.00" shape="891.220771,1032.800497 865.658613,1035.112550 800.625685,1041.044528 789.569889,1040.451514 782.910913,1040.784322 782.945766,1045.264972 771.974814,1044.040357 772.267540,1039.522931 765.329073,1038.837623 765.240112,1039.313532 763.112501,1049.423812 762.113977,1056.503634 769.169781,1057.491831 768.534444,1062.023449 767.961944,1067.523652 764.968477,1086.684436 764.543254,1089.887040 780.458584,1091.572303 816.616810,1095.833803 816.549815,1096.699295 812.798009,1185.263014 869.221492,1186.143345 871.606557,1102.149637 880.251331,1102.386032 888.880295,1102.633184 891.220771,1032.800497"/>
    <poly id="273932937" type="amenity.parking" color="184,184,179" fill="1" layer="-1.00" shape="886.494735,1186.638001 886.935761,1171.174582 887.215723,1161.243258 888.880295,1102.633184 880.251331,1102.386032 871.606557,1102.149637 869.221492,1186.143345 877.757043,1186.388293 886.494735,1186.638001"/>
    <poly id="273934172" type="amenity.school" color="237,199,199" fill="1" layer="-2.00" shape="1175.555360,1183.596917 1177.233711,1174.754540 1179.501625,1162.346611 1180.417219,1157.488130 1182.655805,1145.335185 1189.829320,1146.604543 1190.612944,1142.065328 1228.681658,1149.086585 1245.717339,1152.077798 1256.180444,1154.047207 1263.716211,1155.458577 1262.955522,1160.342929 1260.984374,1173.024615 1260.687365,1173.084318 1250.915950,1174.777318 1239.012106,1176.842539 1237.797294,1182.183082 1236.016960,1190.067047 1175.555360,1183.596917"/>