<?xml version="1.0" encoding="UTF-8"?>

<!-- generated on 2022-05-25 15:40:03 by Eclipse SUMO netconvert Version 1.13.0
<configuration xmlns:xsi="http://www.w3.org/2001/XMLSchema-instance" xsi:noNamespaceSchemaLocation="http://sumo.dlr.de/xsd/netconvertConfiguration.xsd">

    <input>
        <type-files value="/usr/share/sumo/data/typemap/osmNetconvert.typ.xml,/usr/share/sumo/data/typemap/osmNetconvertBicycle.typ.xml"/>
        <osm-files value="osm_bbox.osm.xml.gz"/>
    </input>

    <output>
        <output-file value="osm.net.xml"/>
        <output.street-names value="true"/>
        <output.original-names value="true"/>
    </output>

    <projection>
        <proj.utm value="true"/>
    </projection>

    <processing>
        <geometry.remove value="true"/>
        <roundabouts.guess value="true"/>
    </processing>

    <tls_building>
        <tls.discard-simple value="true"/>
        <tls.join value="true"/>
        <tls.guess-signals value="true"/>
        <tls.default-type value="actuated"/>
    </tls_building>

    <ramp_guessing>
        <ramps.guess value="true"/>
    </ramp_guessing>

    <junctions>
        <junctions.join value="true"/>
        <junctions.corner-detail value="5"/>
    </junctions>

    <formats>
        <osm.bike-access value="true"/>
    </formats>

    <report>
        <verbose value="true"/>
        <aggregate-warnings value="5"/>
    </report>

</configuration>
-->

<net version="1.9" junctionCornerDetail="5" limitTurnSpeed="5.50" xmlns:xsi="http://www.w3.org/2001/XMLSchema-instance" xsi:noNamespaceSchemaLocation="http://sumo.dlr.de/xsd/net_file.xsd">

    <location netOffset="-645085.30,-5069395.72" convBoundary="0.00,0.00,2335.46,1502.24" origBoundary="4.865978,45.762680,4.896081,45.776103" projParameter="+proj=utm +zone=31 +ellps=WGS84 +datum=WGS84 +units=m +no_defs"/>

    <type id="cycleway.lane" allow="bicycle" bikeLaneWidth="1.00"/>
    <type id="cycleway.lane|cycleway.opposite_lane|highway.residential" priority="3" numLanes="1" speed="13.89" disallow="tram rail_urban rail rail_electric rail_fast ship" oneway="0" bikeLaneWidth="1.00"/>
    <type id="cycleway.lane|cycleway.opposite_lane|highway.tertiary" priority="10" numLanes="1" speed="22.22" disallow="tram rail_urban rail rail_electric rail_fast ship" oneway="0" bikeLaneWidth="1.00"/>
    <type id="cycleway.lane|cycleway.opposite_track|highway.tertiary" priority="10" numLanes="1" speed="22.22" disallow="tram rail_urban rail rail_electric rail_fast ship" oneway="0" bikeLaneWidth="1.50"/>
    <type id="cycleway.lane|cycleway.track|highway.tertiary" priority="10" numLanes="1" speed="22.22" disallow="tram rail_urban rail rail_electric rail_fast ship" oneway="0" bikeLaneWidth="1.50"/>
    <type id="cycleway.lane|highway.primary" priority="12" numLanes="2" speed="27.78" disallow="tram rail_urban rail rail_electric rail_fast ship" oneway="0" bikeLaneWidth="1.00"/>
    <type id="cycleway.lane|highway.residential" priority="3" numLanes="1" speed="13.89" disallow="tram rail_urban rail rail_electric rail_fast ship" oneway="0" bikeLaneWidth="1.00"/>
    <type id="cycleway.lane|highway.tertiary" priority="10" numLanes="1" speed="22.22" disallow="tram rail_urban rail rail_electric rail_fast ship" oneway="0" bikeLaneWidth="1.00"/>
    <type id="cycleway.lane|highway.unclassified" priority="4" numLanes="1" speed="13.89" disallow="tram rail_urban rail rail_electric rail_fast ship" oneway="0" bikeLaneWidth="1.00"/>
    <type id="cycleway.opposite_lane" allow="bicycle" bikeLaneWidth="1.00"/>
    <type id="cycleway.opposite_lane|highway.residential" priority="3" numLanes="1" speed="13.89" disallow="tram rail_urban rail rail_electric rail_fast ship" oneway="0" bikeLaneWidth="1.00"/>
    <type id="cycleway.opposite_lane|highway.tertiary" priority="10" numLanes="1" speed="22.22" disallow="tram rail_urban rail rail_electric rail_fast ship" oneway="0" bikeLaneWidth="1.00"/>
    <type id="cycleway.opposite_lane|highway.unclassified" priority="4" numLanes="1" speed="13.89" disallow="tram rail_urban rail rail_electric rail_fast ship" oneway="0" bikeLaneWidth="1.00"/>
    <type id="cycleway.opposite_track" allow="bicycle" bikeLaneWidth="1.50"/>
    <type id="cycleway.opposite_track|highway.tertiary" priority="10" numLanes="1" speed="22.22" disallow="tram rail_urban rail rail_electric rail_fast ship" oneway="0" bikeLaneWidth="1.50"/>
    <type id="cycleway.track" allow="bicycle" bikeLaneWidth="1.50"/>
    <type id="highway.bridleway" priority="1" numLanes="1" speed="2.78" allow="pedestrian" oneway="1" width="2.00"/>
    <type id="highway.bus_guideway" priority="1" numLanes="1" speed="27.78" allow="bus bicycle" oneway="1"/>
    <type id="highway.cycleway" priority="1" numLanes="1" speed="8.33" allow="bicycle" oneway="0" width="1.00"/>
    <type id="highway.footway" priority="1" numLanes="1" speed="2.78" allow="pedestrian" oneway="1" width="2.00"/>
    <type id="highway.ford" priority="1" numLanes="1" speed="2.78" allow="army" oneway="0"/>
    <type id="highway.living_street" priority="2" numLanes="1" speed="2.78" disallow="tram rail_urban rail rail_electric rail_fast ship" oneway="0"/>
    <type id="highway.motorway" priority="14" numLanes="2" speed="39.44" allow="private emergency authority army vip passenger hov taxi bus coach delivery truck trailer motorcycle evehicle custom1 custom2" oneway="1"/>
    <type id="highway.motorway_link" priority="9" numLanes="1" speed="22.22" allow="private emergency authority army vip passenger hov taxi bus coach delivery truck trailer motorcycle evehicle custom1 custom2" oneway="1"/>
    <type id="highway.path" priority="1" numLanes="1" speed="2.78" allow="pedestrian bicycle" oneway="0" width="2.00"/>
    <type id="highway.pedestrian" priority="1" numLanes="1" speed="2.78" allow="pedestrian" oneway="1" width="2.00"/>
    <type id="highway.primary" priority="12" numLanes="2" speed="27.78" disallow="tram rail_urban rail rail_electric rail_fast ship" oneway="0"/>
    <type id="highway.primary_link" priority="7" numLanes="1" speed="22.22" disallow="tram rail_urban rail rail_electric rail_fast ship" oneway="0"/>
    <type id="highway.raceway" priority="15" numLanes="2" speed="83.33" allow="vip" oneway="0"/>
    <type id="highway.residential" priority="3" numLanes="1" speed="13.89" disallow="tram rail_urban rail rail_electric rail_fast ship" oneway="0"/>
    <type id="highway.secondary" priority="11" numLanes="1" speed="27.78" disallow="tram rail_urban rail rail_electric rail_fast ship" oneway="0"/>
    <type id="highway.secondary_link" priority="6" numLanes="1" speed="22.22" disallow="tram rail_urban rail rail_electric rail_fast ship" oneway="0"/>
    <type id="highway.service" priority="1" numLanes="1" speed="5.56" allow="pedestrian delivery bicycle" oneway="0"/>
    <type id="highway.stairs" priority="1" numLanes="1" speed="1.39" allow="pedestrian" oneway="1" width="2.00"/>
    <type id="highway.step" priority="1" numLanes="1" speed="1.39" allow="pedestrian" oneway="1" width="2.00"/>
    <type id="highway.steps" priority="1" numLanes="1" speed="1.39" allow="pedestrian" oneway="1" width="2.00"/>
    <type id="highway.tertiary" priority="10" numLanes="1" speed="22.22" disallow="tram rail_urban rail rail_electric rail_fast ship" oneway="0"/>
    <type id="highway.tertiary_link" priority="5" numLanes="1" speed="22.22" disallow="tram rail_urban rail rail_electric rail_fast ship" oneway="0"/>
    <type id="highway.track" priority="1" numLanes="1" speed="5.56" allow="pedestrian motorcycle moped bicycle" oneway="0"/>
    <type id="highway.trunk" priority="13" numLanes="2" speed="27.78" disallow="pedestrian bicycle tram rail_urban rail rail_electric rail_fast ship" oneway="0"/>
    <type id="highway.trunk_link" priority="8" numLanes="1" speed="22.22" disallow="pedestrian bicycle tram rail_urban rail rail_electric rail_fast ship" oneway="0"/>
    <type id="highway.unclassified" priority="4" numLanes="1" speed="13.89" disallow="tram rail_urban rail rail_electric rail_fast ship" oneway="0"/>
    <type id="highway.unsurfaced" priority="1" numLanes="1" speed="8.33" disallow="tram rail_urban rail rail_electric rail_fast ship" oneway="0"/>
    <type id="railway.highspeed" priority="21" numLanes="1" speed="69.44" allow="rail_fast" oneway="1"/>
    <type id="railway.light_rail" priority="19" numLanes="1" speed="27.78" allow="rail_urban" oneway="1"/>
    <type id="railway.preserved" priority="16" numLanes="1" speed="27.78" allow="rail" oneway="1"/>
    <type id="railway.rail" priority="20" numLanes="1" speed="44.44" allow="rail" oneway="1"/>
    <type id="railway.subway" priority="18" numLanes="1" speed="27.78" allow="rail_urban" oneway="1"/>
    <type id="railway.tram" priority="17" numLanes="1" speed="13.89" allow="tram" oneway="1"/>

    <edge id=":110421994_0" function="internal">
        <lane id=":110421994_0_0" index="0" allow="bicycle" speed="8.33" length="10.83" width="1.00" shape="716.55,1029.92 705.80,1028.63"/>
    </edge>
    <edge id=":110421994_1" function="internal">
        <lane id=":110421994_1_0" index="0" allow="bicycle" speed="8.01" length="6.83" width="1.00" shape="716.55,1029.92 713.37,1028.85 711.28,1026.55 711.18,1026.20"/>
    </edge>
    <edge id=":110421994_2" function="internal">
        <lane id=":110421994_2_0" index="0" disallow="tram rail_urban rail rail_electric rail_fast ship" speed="8.33" length="10.85" shape="716.81,1027.84 706.04,1026.54"/>
    </edge>
    <edge id=":110421994_3" function="internal">
        <lane id=":110421994_3_0" index="0" disallow="tram rail_urban rail rail_electric rail_fast ship" speed="3.65" length="1.44" shape="716.81,1027.84 715.72,1026.90"/>
    </edge>
    <edge id=":110421994_12" function="internal">
        <lane id=":110421994_12_0" index="0" allow="bicycle" speed="8.01" length="8.02" width="1.00" shape="711.18,1026.20 710.27,1023.04 710.34,1018.31"/>
    </edge>
    <edge id=":110421994_13" function="internal">
        <lane id=":110421994_13_0" index="0" disallow="tram rail_urban rail rail_electric rail_fast ship" speed="3.65" length="3.23" shape="715.72,1026.90 715.42,1026.05 715.92,1025.31 717.21,1024.66"/>
    </edge>
    <edge id=":110421994_4" function="internal">
        <lane id=":110421994_4_0" index="0" allow="bicycle" speed="4.99" length="5.56" width="1.00" shape="714.53,1018.67 714.56,1020.22 715.06,1021.39 716.03,1022.18 717.47,1022.58"/>
    </edge>
    <edge id=":110421994_5" function="internal">
        <lane id=":110421994_5_0" index="0" allow="bicycle" speed="8.02" length="14.94" width="1.00" shape="714.53,1018.67 713.51,1023.34 711.72,1026.56 709.15,1028.32 705.80,1028.63"/>
    </edge>
    <edge id=":110421994_6" function="internal">
        <lane id=":110421994_6_0" index="0" disallow="tram rail_urban rail rail_electric rail_fast ship" speed="6.48" length="8.88" shape="712.44,1018.49 712.50,1020.94 713.31,1022.78 714.88,1024.02 717.21,1024.66"/>
    </edge>
    <edge id=":110421994_7" function="internal">
        <lane id=":110421994_7_0" index="0" disallow="tram rail_urban rail rail_electric rail_fast ship" speed="7.28" length="11.54" shape="712.44,1018.49 711.66,1022.24 710.34,1024.83 708.46,1026.27 706.04,1026.54"/>
    </edge>
    <edge id=":110421994_8" function="internal">
        <lane id=":110421994_8_0" index="0" allow="bicycle" speed="4.92" length="5.41" width="1.00" shape="706.64,1021.28 708.11,1021.23 709.22,1020.72 709.97,1019.75 710.34,1018.31"/>
    </edge>
    <edge id=":110421994_9" function="internal">
        <lane id=":110421994_9_0" index="0" allow="bicycle" speed="8.33" length="10.90" width="1.00" shape="706.64,1021.28 717.47,1022.58"/>
        <lane id=":110421994_9_1" index="1" disallow="tram rail_urban rail rail_electric rail_fast ship" speed="8.33" length="10.90" shape="706.40,1023.36 717.21,1024.66"/>
    </edge>
    <edge id=":110421994_11" function="internal">
        <lane id=":110421994_11_0" index="0" disallow="tram rail_urban rail rail_electric rail_fast ship" speed="3.65" length="1.44" shape="706.40,1023.36 707.50,1024.29"/>
    </edge>
    <edge id=":110421994_14" function="internal">
        <lane id=":110421994_14_0" index="0" disallow="tram rail_urban rail rail_electric rail_fast ship" speed="3.65" length="3.23" shape="707.50,1024.29 707.81,1025.13 707.32,1025.88 706.04,1026.54"/>
    </edge>
    <edge id=":110421999_0" function="internal">
        <lane id=":110421999_0_0" index="0" allow="bicycle" speed="4.88" length="5.60" width="1.00" shape="747.73,1033.92 746.18,1033.96 745.05,1034.49 744.33,1035.51 744.02,1037.03"/>
    </edge>
    <edge id=":110421999_1" function="internal">
        <lane id=":110421999_1_0" index="0" allow="bicycle" speed="8.33" length="11.20" width="1.00" shape="747.73,1033.92 736.61,1032.53"/>
    </edge>
    <edge id=":110421999_2" function="internal">
        <lane id=":110421999_2_0" index="0" disallow="tram rail_urban rail rail_electric rail_fast ship" speed="6.41" length="1.42" shape="747.98,1031.83 746.56,1031.87"/>
    </edge>
    <edge id=":110421999_3" function="internal">
        <lane id=":110421999_3_0" index="0" disallow="tram rail_urban rail rail_electric rail_fast ship" speed="8.33" length="11.17" shape="747.98,1031.83 736.90,1030.45"/>
    </edge>
    <edge id=":110421999_4" function="internal">
        <lane id=":110421999_4_0" index="0" disallow="tram rail_urban rail rail_electric rail_fast ship" speed="3.65" length="1.44" shape="747.98,1031.83 746.88,1030.90"/>
    </edge>
    <edge id=":110421999_12" function="internal">
        <lane id=":110421999_12_0" index="0" disallow="tram rail_urban rail rail_electric rail_fast ship" speed="6.41" length="7.72" shape="746.56,1031.87 745.45,1031.90 743.60,1032.76 742.43,1034.43 741.93,1036.91"/>
    </edge>
    <edge id=":110421999_13" function="internal">
        <lane id=":110421999_13_0" index="0" disallow="tram rail_urban rail rail_electric rail_fast ship" speed="3.65" length="3.23" shape="746.88,1030.90 746.58,1030.06 747.07,1029.31 748.35,1028.66"/>
    </edge>
    <edge id=":110421999_5" function="internal">
        <lane id=":110421999_5_0" index="0" allow="bicycle" speed="8.33" length="11.08" width="1.00" shape="737.61,1025.20 748.60,1026.57"/>
    </edge>
    <edge id=":110421999_6" function="internal">
        <lane id=":110421999_6_0" index="0" allow="bicycle" speed="8.25" length="6.67" width="1.00" shape="737.61,1025.20 740.65,1026.30 742.73,1028.64 742.82,1028.94"/>
    </edge>
    <edge id=":110421999_7" function="internal">
        <lane id=":110421999_7_0" index="0" disallow="tram rail_urban rail rail_electric rail_fast ship" speed="8.33" length="11.11" shape="737.33,1027.28 748.35,1028.66"/>
    </edge>
    <edge id=":110421999_8" function="internal">
        <lane id=":110421999_8_0" index="0" disallow="tram rail_urban rail rail_electric rail_fast ship" speed="7.55" length="2.36" shape="737.33,1027.28 739.53,1028.14"/>
    </edge>
    <edge id=":110421999_9" function="internal">
        <lane id=":110421999_9_0" index="0" disallow="tram rail_urban rail rail_electric rail_fast ship" speed="3.65" length="1.44" shape="737.33,1027.28 738.41,1028.24"/>
    </edge>
    <edge id=":110421999_14" function="internal">
        <lane id=":110421999_14_0" index="0" allow="bicycle" speed="8.25" length="8.25" width="1.00" shape="742.82,1028.94 743.85,1032.21 744.02,1037.03"/>
    </edge>
    <edge id=":110421999_15" function="internal">
        <lane id=":110421999_15_0" index="0" disallow="tram rail_urban rail rail_electric rail_fast ship" speed="7.55" length="9.40" shape="739.53,1028.14 741.03,1030.04 741.83,1032.96 741.93,1036.91"/>
    </edge>
    <edge id=":110421999_16" function="internal">
        <lane id=":110421999_16_0" index="0" disallow="tram rail_urban rail rail_electric rail_fast ship" speed="3.65" length="3.23" shape="738.41,1028.24 738.70,1029.08 738.19,1029.82 736.90,1030.45"/>
    </edge>
    <edge id=":110421999_10" function="internal">
        <lane id=":110421999_10_0" index="0" allow="bicycle" speed="5.31" length="5.98" width="1.00" shape="739.83,1036.79 739.71,1035.10 739.13,1033.83 738.10,1032.97 736.61,1032.53"/>
    </edge>
    <edge id=":110421999_11" function="internal">
        <lane id=":110421999_11_0" index="0" allow="bicycle" speed="7.96" length="15.46" width="1.00" shape="739.83,1036.79 740.61,1031.96 742.34,1028.64 745.00,1026.85 748.60,1026.57"/>
    </edge>
    <edge id=":110422009_0" function="internal">
        <lane id=":110422009_0_0" index="0" allow="bicycle" speed="8.33" length="9.24" width="1.00" shape="901.71,1025.73 892.52,1026.58"/>
        <lane id=":110422009_0_1" index="1" disallow="tram rail_urban rail rail_electric rail_fast ship" speed="8.33" length="9.24" shape="901.53,1023.64 892.32,1024.49"/>
    </edge>
    <edge id=":110422009_2" function="internal">
        <lane id=":110422009_2_0" index="0" disallow="tram rail_urban rail rail_electric rail_fast ship" speed="3.65" length="1.44" shape="901.53,1023.64 900.27,1022.95"/>
    </edge>
    <edge id=":110422009_10" function="internal">
        <lane id=":110422009_10_0" index="0" disallow="tram rail_urban rail rail_electric rail_fast ship" speed="3.65" length="3.23" shape="900.27,1022.95 899.80,1022.18 900.13,1021.35 901.26,1020.45"/>
    </edge>
    <edge id=":110422009_3" function="internal">
        <lane id=":110422009_3_0" index="0" allow="bicycle" speed="8.33" length="9.31" width="1.00" shape="891.80,1019.22 901.08,1018.36"/>
        <lane id=":110422009_3_1" index="1" disallow="tram rail_urban rail rail_electric rail_fast ship" speed="8.33" length="9.31" shape="892.00,1021.31 901.26,1020.45"/>
    </edge>
    <edge id=":110422009_5" function="internal">
        <lane id=":110422009_5_0" index="0" disallow="tram rail_urban rail rail_electric rail_fast ship" speed="3.65" length="1.44" shape="892.00,1021.31 893.28,1021.99"/>
    </edge>
    <edge id=":110422009_11" function="internal">
        <lane id=":110422009_11_0" index="0" disallow="tram rail_urban rail rail_electric rail_fast ship" speed="3.65" length="3.23" shape="893.28,1021.99 893.75,1022.74 893.43,1023.58 892.32,1024.49"/>
    </edge>
    <edge id=":110422009_6" function="internal">
        <lane id=":110422009_6_0" index="0" allow="bicycle" speed="5.07" length="5.55" width="1.00" shape="895.98,1029.80 895.80,1028.26 895.16,1027.21 894.07,1026.65 892.52,1026.58"/>
        <lane id=":110422009_6_1" index="1" disallow="tram rail_urban rail rail_electric rail_fast ship" speed="6.05" length="8.38" shape="897.08,1029.82 896.84,1027.31 895.96,1025.58 894.45,1024.64 892.32,1024.49"/>
    </edge>
    <edge id=":110422009_8" function="internal">
        <lane id=":110422009_8_0" index="0" allow="bicycle" speed="7.81" length="12.33" width="1.00" shape="898.18,1029.85 898.47,1024.91 899.05,1021.34 899.92,1019.16 901.08,1018.36"/>
        <lane id=":110422009_8_1" index="1" disallow="tram rail_urban rail rail_electric rail_fast ship" speed="7.43" length="11.08" shape="897.08,1029.82 897.43,1025.85 898.24,1022.96 899.52,1021.16 901.26,1020.45"/>
    </edge>
    <edge id=":110422013_0" function="internal">
        <lane id=":110422013_0_0" index="0" allow="bicycle" speed="5.99" length="6.37" width="1.00" shape="1023.10,1013.21 1021.89,1013.63 1020.97,1014.60 1020.33,1016.12 1019.97,1018.19"/>
        <lane id=":110422013_0_1" index="1" disallow="tram rail_urban rail rail_electric rail_fast ship" speed="6.84" length="8.58" shape="1022.99,1012.12 1020.94,1012.67 1019.40,1013.84 1018.38,1015.63 1017.88,1018.05"/>
    </edge>
    <edge id=":110422013_2" function="internal">
        <lane id=":110422013_2_0" index="0" allow="bicycle" speed="8.33" length="10.21" width="1.00" shape="1023.10,1013.21 1020.16,1013.68 1018.14,1014.23 1016.10,1014.79 1013.08,1015.26"/>
        <lane id=":110422013_2_1" index="1" disallow="tram rail_urban rail rail_electric rail_fast ship" speed="8.33" length="10.21" shape="1022.99,1012.12 1012.87,1013.17"/>
    </edge>
    <edge id=":110422013_4" function="internal">
        <lane id=":110422013_4_0" index="0" disallow="tram rail_urban rail rail_electric rail_fast ship" speed="3.65" length="1.44" shape="1022.99,1012.12 1021.71,1011.45"/>
    </edge>
    <edge id=":110422013_12" function="internal">
        <lane id=":110422013_12_0" index="0" disallow="tram rail_urban rail rail_electric rail_fast ship" speed="3.65" length="3.23" shape="1021.71,1011.45 1021.23,1010.69 1021.55,1009.86 1022.66,1008.94"/>
    </edge>
    <edge id=":110422013_5" function="internal">
        <lane id=":110422013_5_0" index="0" allow="bicycle" speed="8.33" length="10.17" width="1.00" shape="1012.32,1007.90 1022.44,1006.85"/>
    </edge>
    <edge id=":110422013_6" function="internal">
        <lane id=":110422013_6_0" index="0" allow="bicycle" speed="7.57" length="7.11" width="1.00" shape="1012.32,1007.90 1016.05,1008.21 1018.57,1010.02 1018.67,1010.27"/>
    </edge>
    <edge id=":110422013_7" function="internal">
        <lane id=":110422013_7_0" index="0" disallow="tram rail_urban rail rail_electric rail_fast ship" speed="8.33" length="10.17" shape="1012.54,1009.99 1022.66,1008.94"/>
    </edge>
    <edge id=":110422013_8" function="internal">
        <lane id=":110422013_8_0" index="0" disallow="tram rail_urban rail rail_electric rail_fast ship" speed="6.80" length="2.64" shape="1012.54,1009.99 1015.17,1010.25"/>
    </edge>
    <edge id=":110422013_9" function="internal">
        <lane id=":110422013_9_0" index="0" disallow="tram rail_urban rail rail_electric rail_fast ship" speed="3.65" length="1.44" shape="1012.54,1009.99 1013.81,1010.66"/>
    </edge>
    <edge id=":110422013_13" function="internal">
        <lane id=":110422013_13_0" index="0" allow="bicycle" speed="7.57" length="8.15" width="1.00" shape="1018.67,1010.27 1019.87,1013.35 1019.97,1018.19"/>
    </edge>
    <edge id=":110422013_14" function="internal">
        <lane id=":110422013_14_0" index="0" disallow="tram rail_urban rail rail_electric rail_fast ship" speed="6.80" length="8.79" shape="1015.17,1010.25 1016.94,1011.69 1017.84,1014.28 1017.88,1018.05"/>
    </edge>
    <edge id=":110422013_15" function="internal">
        <lane id=":110422013_15_0" index="0" disallow="tram rail_urban rail rail_electric rail_fast ship" speed="3.65" length="3.23" shape="1013.81,1010.66 1014.30,1011.41 1013.98,1012.25 1012.87,1013.17"/>
    </edge>
    <edge id=":110422013_10" function="internal">
        <lane id=":110422013_10_0" index="0" allow="bicycle" speed="4.24" length="4.53" width="1.00" shape="1015.78,1017.90 1015.71,1016.63 1015.24,1015.77 1014.36,1015.31 1013.08,1015.26"/>
    </edge>
    <edge id=":110422013_11" function="internal">
        <lane id=":110422013_11_0" index="0" allow="bicycle" speed="8.38" length="13.95" width="1.00" shape="1015.78,1017.90 1016.55,1013.29 1017.92,1009.91 1019.88,1007.76 1022.44,1006.85"/>
    </edge>
    <edge id=":110422017_0" function="internal">
        <lane id=":110422017_0_0" index="0" disallow="tram rail_urban rail rail_electric rail_fast ship" speed="13.89" length="8.41" shape="1122.40,1001.93 1114.03,1002.77"/>
    </edge>
    <edge id=":110422017_1" function="internal">
        <lane id=":110422017_1_0" index="0" disallow="tram rail_urban rail rail_electric rail_fast ship" speed="6.73" length="2.07" shape="1122.40,1001.93 1120.35,1001.61"/>
    </edge>
    <edge id=":110422017_2" function="internal">
        <lane id=":110422017_2_0" index="0" disallow="tram rail_urban rail rail_electric rail_fast ship" speed="3.65" length="1.44" shape="1122.40,1001.93 1121.12,1001.25"/>
    </edge>
    <edge id=":110422017_8" function="internal">
        <lane id=":110422017_8_0" index="0" disallow="tram rail_urban rail rail_electric rail_fast ship" speed="6.73" length="8.34" shape="1120.35,1001.61 1118.88,1000.20 1117.98,997.69 1117.65,994.07"/>
    </edge>
    <edge id=":110422017_9" function="internal">
        <lane id=":110422017_9_0" index="0" disallow="tram rail_urban rail rail_electric rail_fast ship" speed="3.65" length="3.23" shape="1121.12,1001.25 1120.64,1000.50 1120.96,999.66 1122.08,998.74"/>
    </edge>
    <edge id=":110422017_3" function="internal">
        <lane id=":110422017_3_0" index="0" allow="bicycle" speed="4.96" length="5.13" width="1.00" shape="1113.49,997.50 1114.84,997.17 1115.80,996.49 1116.37,995.46 1116.55,994.08"/>
    </edge>
    <edge id=":110422017_4" function="internal">
        <lane id=":110422017_4_0" index="0" allow="bicycle" speed="13.89" length="8.49" width="1.00" shape="1113.49,997.50 1116.00,997.40 1117.73,997.57 1119.46,997.74 1121.97,997.65"/>
    </edge>
    <edge id=":110422017_5" function="internal">
        <lane id=":110422017_5_0" index="0" disallow="tram rail_urban rail rail_electric rail_fast ship" speed="6.21" length="3.25" shape="1113.71,999.59 1115.45,999.09 1116.53,998.15"/>
    </edge>
    <edge id=":110422017_6" function="internal">
        <lane id=":110422017_6_0" index="0" disallow="tram rail_urban rail rail_electric rail_fast ship" speed="13.89" length="8.41" shape="1113.71,999.59 1122.08,998.74"/>
    </edge>
    <edge id=":110422017_7" function="internal">
        <lane id=":110422017_7_0" index="0" disallow="tram rail_urban rail rail_electric rail_fast ship" speed="3.65" length="1.44" shape="1113.71,999.59 1114.98,1000.26"/>
    </edge>
    <edge id=":110422017_10" function="internal">
        <lane id=":110422017_10_0" index="0" disallow="tram rail_urban rail rail_electric rail_fast ship" speed="6.21" length="4.31" shape="1116.53,998.15 1116.69,998.01 1117.42,996.34 1117.65,994.07"/>
    </edge>
    <edge id=":110422017_11" function="internal">
        <lane id=":110422017_11_0" index="0" disallow="tram rail_urban rail rail_electric rail_fast ship" speed="3.65" length="3.23" shape="1114.98,1000.26 1115.46,1001.02 1115.14,1001.86 1114.03,1002.77"/>
    </edge>
    <edge id=":110422026_0" function="internal">
        <lane id=":110422026_0_0" index="0" disallow="tram rail_urban rail rail_electric rail_fast ship" speed="11.11" length="9.21" shape="1063.86,1007.87 1054.71,1008.81"/>
    </edge>
    <edge id=":110422026_1" function="internal">
        <lane id=":110422026_1_0" index="0" disallow="tram rail_urban rail rail_electric rail_fast ship" speed="3.65" length="1.44" shape="1063.86,1007.87 1062.59,1007.20"/>
    </edge>
    <edge id=":110422026_8" function="internal">
        <lane id=":110422026_8_0" index="0" disallow="tram rail_urban rail rail_electric rail_fast ship" speed="3.65" length="3.23" shape="1062.59,1007.20 1062.11,1006.44 1062.43,1005.60 1063.54,1004.69"/>
    </edge>
    <edge id=":110422026_2" function="internal">
        <lane id=":110422026_2_0" index="0" allow="bicycle" speed="4.78" length="4.78" width="1.00" shape="1059.83,1000.43 1060.03,1001.51 1060.68,1002.24 1061.78,1002.60 1063.33,1002.60"/>
        <lane id=":110422026_2_1" index="1" disallow="tram rail_urban rail rail_electric rail_fast ship" speed="5.79" length="7.55" shape="1058.73,1000.41 1059.00,1002.47 1059.89,1003.87 1061.40,1004.61 1063.54,1004.69"/>
    </edge>
    <edge id=":110422026_4" function="internal">
        <lane id=":110422026_4_0" index="0" disallow="tram rail_urban rail rail_electric rail_fast ship" speed="7.15" length="10.10" shape="1058.73,1000.41 1058.43,1003.93 1057.65,1006.51 1056.41,1008.13 1054.71,1008.81"/>
    </edge>
    <edge id=":110422026_5" function="internal">
        <lane id=":110422026_5_0" index="0" allow="bicycle" speed="11.11" length="9.22" width="1.00" shape="1054.16,1003.54 1063.33,1002.60"/>
        <lane id=":110422026_5_1" index="1" disallow="tram rail_urban rail rail_electric rail_fast ship" speed="11.11" length="9.22" shape="1054.37,1005.63 1063.54,1004.69"/>
    </edge>
    <edge id=":110422026_7" function="internal">
        <lane id=":110422026_7_0" index="0" disallow="tram rail_urban rail rail_electric rail_fast ship" speed="3.65" length="1.44" shape="1054.37,1005.63 1055.65,1006.30"/>
    </edge>
    <edge id=":110422026_9" function="internal">
        <lane id=":110422026_9_0" index="0" disallow="tram rail_urban rail rail_electric rail_fast ship" speed="3.65" length="3.23" shape="1055.65,1006.30 1056.13,1007.05 1055.82,1007.89 1054.71,1008.81"/>
    </edge>
    <edge id=":110422035_0" function="internal">
        <lane id=":110422035_0_0" index="0" allow="bicycle" speed="5.13" length="5.57" width="1.00" shape="1200.52,734.96 1200.09,733.48 1199.29,732.53 1198.13,732.12 1196.59,732.24"/>
        <lane id=":110422035_0_1" index="1" disallow="tram rail_urban rail rail_electric rail_fast ship" speed="6.10" length="8.34" shape="1201.61,734.82 1200.98,732.39 1199.85,730.81 1198.23,730.08 1196.12,730.20"/>
    </edge>
    <edge id=":110422035_2" function="internal">
        <lane id=":110422035_2_0" index="0" allow="bicycle" speed="8.33" length="14.40" width="1.00" shape="1202.70,734.67 1202.42,729.74 1203.05,726.02 1204.59,723.53 1207.05,722.25"/>
        <lane id=":110422035_2_1" index="1" disallow="tram rail_urban rail rail_electric rail_fast ship" speed="8.07" length="13.46" shape="1201.61,734.82 1201.53,730.83 1202.48,727.74 1204.48,725.57 1207.52,724.30"/>
    </edge>
    <edge id=":110422035_4" function="internal">
        <lane id=":110422035_4_0" index="0" disallow="tram rail_urban rail rail_electric rail_fast ship" speed="3.65" length="1.44" shape="1201.61,734.82 1202.25,733.52"/>
    </edge>
    <edge id=":110422035_14" function="internal">
        <lane id=":110422035_14_0" index="0" disallow="tram rail_urban rail rail_electric rail_fast ship" speed="3.65" length="3.23" shape="1202.25,733.52 1202.98,733.01 1203.83,733.30 1204.79,734.38"/>
    </edge>
    <edge id=":110422035_5" function="internal">
        <lane id=":110422035_5_0" index="0" allow="bicycle" speed="5.41" length="6.19" width="1.00" shape="1208.70,729.47 1207.26,730.05 1206.31,731.04 1205.85,732.44 1205.88,734.24"/>
    </edge>
    <edge id=":110422035_6" function="internal">